Version 4
SHEET 1 880 680
WIRE 320 144 144 144
WIRE -496 160 -512 160
WIRE -272 160 -496 160
WIRE -224 160 -272 160
WIRE -48 160 -144 160
WIRE 48 160 -48 160
WIRE 96 160 48 160
WIRE 144 160 144 144
WIRE -272 176 -272 160
WIRE -48 176 -48 160
WIRE 96 176 96 160
WIRE 96 256 96 224
WIRE -272 272 -272 240
WIRE 144 272 144 240
WIRE -48 288 -48 256
FLAG 144 272 0
FLAG 96 256 0
FLAG -48 288 0
FLAG -272 272 0
FLAG 48 160 Vin
FLAG -496 160 Vout_lumped_element
FLAG 320 144 Vout_Laplace
SYMBOL e 144 144 R0
SYMATTR InstName E1
SYMATTR Value Laplace = 1/(1+s*{C}*{R})
SYMBOL voltage -48 160 R0
WINDOW 3 -172 180 Left 2
WINDOW 123 22 103 Left 2
WINDOW 39 0 0 Left 0
SYMATTR InstName V1
SYMATTR Value PULSE(0 1 100m 1n 1n 100m 200m)
SYMATTR Value2 AC 1
SYMBOL res -240 144 M90
WINDOW 0 0 56 VBottom 2
WINDOW 3 32 56 VTop 2
SYMATTR InstName R1
SYMATTR Value {R}
SYMBOL cap -256 176 M0
SYMATTR InstName C1
SYMATTR Value {C}
TEXT -304 72 Left 2 !.step param R 1k 20k 10k
TEXT -344 232 Right 2 !.step param C 1u 10u 1u
TEXT -480 0 Left 4 ;Simple RC ckt and its equivalent Laplace TRansform
TEXT -72 304 Right 2 !.tran 1
