Version 4
SHEET 1 1060 680
WIRE 240 -32 160 -32
WIRE 608 -32 240 -32
WIRE 240 16 240 -32
WIRE 608 16 608 -32
WIRE -64 96 -96 96
WIRE -32 96 -64 96
WIRE 160 96 160 48
WIRE 240 112 240 96
WIRE 352 112 240 112
WIRE 608 112 608 96
WIRE 752 112 608 112
WIRE 768 112 752 112
WIRE -96 128 -96 96
WIRE 240 128 240 112
WIRE 608 128 608 112
WIRE -32 176 -32 96
WIRE 0 176 -32 176
WIRE 112 176 80 176
WIRE 176 176 112 176
WIRE 352 176 352 112
WIRE 368 176 352 176
WIRE 480 176 448 176
WIRE 544 176 480 176
WIRE 112 192 112 176
WIRE 480 192 480 176
WIRE -96 336 -96 208
WIRE 112 336 112 272
WIRE 112 336 -96 336
WIRE 240 336 240 224
WIRE 240 336 112 336
WIRE 480 336 480 272
WIRE 480 336 240 336
WIRE 608 336 608 224
WIRE 608 336 480 336
WIRE 240 368 240 336
FLAG 752 112 Output
FLAG -64 96 IN_pulse
FLAG 240 368 0
FLAG 160 96 0
SYMBOL res 96 160 R90
WINDOW 0 0 56 VBottom 2
WINDOW 3 32 56 VTop 2
SYMATTR InstName R1
SYMATTR Value 1.2k
SYMBOL res 96 288 M180
WINDOW 0 36 76 Left 2
WINDOW 3 36 40 Left 2
SYMATTR InstName R2
SYMATTR Value 3.3k
SYMBOL npn 176 128 R0
SYMATTR InstName Q1
SYMATTR Value 2N2222
SYMBOL res 224 0 R0
SYMATTR InstName R3
SYMATTR Value 1k
SYMBOL res 464 160 R90
WINDOW 0 0 56 VBottom 2
WINDOW 3 32 56 VTop 2
SYMATTR InstName R4
SYMATTR Value 1.2k
SYMBOL res 464 288 M180
WINDOW 0 36 76 Left 2
WINDOW 3 36 40 Left 2
SYMATTR InstName R5
SYMATTR Value 3.3k
SYMBOL npn 544 128 R0
SYMATTR InstName Q2
SYMATTR Value 2N2222
SYMBOL res 592 0 R0
SYMATTR InstName R6
SYMATTR Value 1k
SYMBOL voltage -96 112 R0
WINDOW 3 -370 51 Left 2
WINDOW 123 0 0 Left 0
WINDOW 39 0 0 Left 0
SYMATTR InstName V1
SYMATTR Value PULSE(0 5 0 0 0 2u 4u 100)
SYMBOL voltage 160 -48 M0
WINDOW 123 0 0 Left 0
WINDOW 39 0 0 Left 0
SYMATTR InstName V2
SYMATTR Value 15
TEXT -416 216 Left 2 !.tran 0 50u 0
TEXT 184 -80 Left 4 ;Pulse generation circuit
TEXT 848 296 Left 1 ;Created By : Shashi Prabha\n             7 March 2024
